Version 4
SHEET 1 3364 1156
WIRE 2272 -288 2272 -528
WIRE 2240 -256 2016 -256
WIRE 2016 -240 2016 -256
WIRE 320 -208 240 -208
WIRE 528 -208 400 -208
WIRE 704 -208 608 -208
WIRE -1984 -112 -2032 -112
WIRE -1824 -112 -1904 -112
WIRE -1600 -112 -1744 -112
WIRE -1536 -112 -1600 -112
WIRE -304 -112 -1472 -112
WIRE 240 -112 240 -208
WIRE 240 -112 -304 -112
WIRE 416 -112 240 -112
WIRE 704 -112 704 -208
WIRE 704 -112 496 -112
WIRE 880 -112 704 -112
WIRE 1200 -112 976 -112
WIRE 1344 -112 1200 -112
WIRE 1552 -112 1424 -112
WIRE 1664 -112 1552 -112
WIRE 1888 -112 1664 -112
WIRE 2016 -112 2016 -160
WIRE 2272 -112 2272 -224
WIRE 2800 -96 2800 -112
WIRE 2800 -64 2800 -96
WIRE 3056 -48 3056 -96
WIRE -1600 0 -1600 -112
WIRE 960 16 960 -64
WIRE 1552 16 1552 -112
WIRE 1664 16 1664 -112
WIRE 2272 16 2272 -16
WIRE -2032 32 -2032 -112
WIRE 704 32 704 -112
WIRE 1200 32 1200 -112
WIRE 2800 32 2800 16
WIRE 2272 48 2272 16
WIRE 3056 96 3056 32
WIRE 2640 128 2560 128
WIRE 2768 128 2720 128
WIRE 2880 128 2832 128
WIRE -1600 144 -1600 80
WIRE -304 160 -304 -112
WIRE 1888 176 1888 -112
WIRE 3056 192 3056 176
WIRE 3152 192 3056 192
WIRE 3296 192 3232 192
WIRE 2320 208 2128 208
WIRE 2512 208 2400 208
WIRE -1504 224 -1504 -96
WIRE -1264 224 -1504 224
WIRE -1136 224 -1200 224
WIRE -992 224 -1136 224
WIRE -896 240 -928 240
WIRE -848 240 -896 240
WIRE -992 256 -1056 256
WIRE 704 288 704 96
WIRE 1200 288 1200 96
WIRE 1200 288 704 288
WIRE 1552 288 1552 80
WIRE 1552 288 1200 288
WIRE 1632 288 1552 288
WIRE 1664 288 1664 96
WIRE 1664 288 1632 288
WIRE 3056 288 3056 192
WIRE 3136 288 3056 288
WIRE -1136 304 -1136 224
WIRE -304 304 -304 240
WIRE 1888 304 1888 256
WIRE 2128 304 2128 208
WIRE 2128 304 1888 304
WIRE 2176 304 2128 304
WIRE 2400 304 2256 304
WIRE 2512 304 2512 208
WIRE 2512 304 2464 304
WIRE 2560 304 2560 128
WIRE 2560 304 2512 304
WIRE 2640 304 2560 304
WIRE 3296 304 3296 192
WIRE 3296 304 3200 304
WIRE 3328 304 3296 304
WIRE 3360 304 3328 304
WIRE 2512 320 2512 304
WIRE 2880 320 2880 128
WIRE 2880 320 2704 320
WIRE 3136 320 2880 320
WIRE 2640 336 2560 336
WIRE -1056 352 -1056 256
WIRE -992 352 -1056 352
WIRE -896 352 -896 240
WIRE -896 352 -912 352
WIRE -1056 384 -1056 352
WIRE 1888 384 1888 304
WIRE -656 400 -688 400
WIRE -512 400 -576 400
WIRE 2560 448 2560 336
WIRE -1136 496 -1136 384
WIRE -1056 496 -1056 464
WIRE -1056 496 -1136 496
WIRE -688 496 -688 400
WIRE -656 496 -688 496
WIRE -1136 512 -1136 496
WIRE -1056 512 -1056 496
WIRE -848 512 -848 240
WIRE -784 512 -848 512
WIRE -688 512 -688 496
WIRE -688 512 -704 512
WIRE -512 512 -512 400
WIRE -512 512 -592 512
WIRE -304 512 -304 368
WIRE -304 512 -512 512
WIRE -656 528 -688 528
WIRE 2560 544 2560 448
WIRE -688 608 -688 528
WIRE -1136 624 -1136 592
WIRE 1888 704 1888 464
WIRE 2560 736 2560 624
WIRE -2032 784 -2032 112
WIRE -1600 784 -1600 208
WIRE -1600 784 -2032 784
FLAG 1632 288 0
FLAG 960 16 d
FLAG 2016 -112 0
FLAG 2272 -528 d
FLAG 3328 304 g
FLAG 2272 16 g
FLAG 1888 704 0
FLAG 2800 32 0
FLAG 2800 -96 dd
FLAG 2672 352 0
FLAG 2672 288 dd
FLAG 2560 448 ref
FLAG 3168 336 0
FLAG 3168 272 dd
FLAG 3056 -96 0
FLAG 2560 736 0
FLAG -1600 784 0
FLAG -1136 624 0
FLAG -688 688 0
SYMBOL res 1648 0 R0
SYMATTR InstName R1
SYMATTR Value 2
SYMBOL cap 1536 16 R0
SYMATTR InstName C1
SYMATTR Value 10µ
SYMBOL ind 1328 -96 R270
WINDOW 0 32 56 VTop 2
WINDOW 3 5 56 VBottom 2
SYMATTR InstName L1
SYMATTR Value 200µ
SYMBOL diode 1216 96 R180
WINDOW 0 24 64 Left 2
WINDOW 3 24 0 Left 2
SYMATTR InstName D1
SYMBOL nmos 880 -64 R270
SYMATTR InstName M1
SYMATTR Value IPB036N12N3
SYMBOL voltage -2032 16 R0
SYMATTR InstName V1
SYMATTR Value 100
SYMBOL LTspiceControlLibrary\\PulseModulations\\PWM 2304 -32 R270
SYMATTR Value Vin1=2 Vin2=3 Tperiod=4u
SYMATTR InstName U1
SYMBOL LTspiceControlLibrary\\Math\\Operands\\mul 2240 -240 M270
SYMATTR InstName U2
SYMBOL voltage 2016 -256 R0
SYMATTR InstName V2
SYMATTR Value 110
SYMBOL res 1872 160 R0
SYMATTR InstName R2
SYMATTR Value 9k
SYMBOL res 1872 368 R0
SYMATTR InstName R3
SYMATTR Value 1k
SYMBOL voltage 2800 -80 R0
WINDOW 123 0 0 Left 0
WINDOW 39 0 0 Left 0
SYMATTR InstName V3
SYMATTR Value 5
SYMBOL res 2272 288 R90
WINDOW 0 0 56 VBottom 2
WINDOW 3 32 56 VTop 2
SYMATTR InstName R4
SYMATTR Value 1k
SYMBOL res 2416 192 R90
WINDOW 0 0 56 VBottom 2
WINDOW 3 32 56 VTop 2
SYMATTR InstName R5
SYMATTR Value 6.55k
SYMBOL res 2736 112 R90
WINDOW 0 0 56 VBottom 2
WINDOW 3 32 56 VTop 2
SYMATTR InstName R6
SYMATTR Value 6100
SYMBOL cap 2464 288 R90
WINDOW 0 0 32 VBottom 2
WINDOW 3 32 32 VTop 2
SYMATTR InstName C2
SYMATTR Value 1.45n
SYMBOL cap 2832 112 R90
WINDOW 0 0 32 VBottom 2
WINDOW 3 32 32 VTop 2
SYMATTR InstName C3
SYMATTR Value 13n
SYMBOL OpAmps\\UniversalOpamp 2672 320 R0
SYMATTR InstName U3
SYMBOL voltage 2560 528 R0
WINDOW 123 0 0 Left 0
WINDOW 39 0 0 Left 0
SYMATTR InstName V4
SYMATTR Value PWL(0 0 2m 2.5)
SYMBOL OpAmps\\UniversalOpamp 3168 304 R0
SYMATTR InstName U4
SYMBOL res 3040 80 R0
SYMATTR InstName R7
SYMATTR Value 10k
SYMBOL res 3248 176 R90
WINDOW 0 0 56 VBottom 2
WINDOW 3 32 56 VTop 2
SYMATTR InstName R8
SYMATTR Value 40k
SYMBOL voltage 3056 48 R180
WINDOW 0 24 96 Left 2
WINDOW 3 24 16 Left 2
SYMATTR InstName V5
SYMATTR Value 2.5
SYMBOL ind 400 -96 R270
WINDOW 0 32 56 VTop 2
WINDOW 3 5 56 VBottom 2
SYMATTR InstName L2
SYMATTR Value 5.5µ
SYMBOL ind 304 -192 R270
WINDOW 0 32 56 VTop 2
WINDOW 3 5 56 VBottom 2
SYMATTR InstName L3
SYMATTR Value 2.55µ
SYMBOL res 624 -224 R90
WINDOW 0 0 56 VBottom 2
WINDOW 3 32 56 VTop 2
SYMATTR InstName R9
SYMATTR Value 0.5
SYMBOL cap 688 32 R0
SYMATTR InstName C4
SYMATTR Value 22µ
SYMBOL LTspiceControlLibrary\\Sensors\\CurrentSensor -1504 -112 M0
SYMATTR InstName U5
SYMBOL cap -1616 144 R0
SYMATTR InstName C5
SYMATTR Value 10µ
SYMBOL res -1616 -16 R0
SYMATTR InstName R10
SYMATTR Value 0.5
SYMBOL res -1888 -128 R90
WINDOW 0 0 56 VBottom 2
WINDOW 3 32 56 VTop 2
SYMATTR InstName R11
SYMATTR Value 0.01
SYMBOL ind -1840 -96 R270
WINDOW 0 32 56 VTop 2
WINDOW 3 5 56 VBottom 2
SYMATTR InstName L4
SYMATTR Value 200n
SYMBOL OpAmps\\opamp -960 304 M180
SYMATTR InstName U6
SYMBOL res -1152 288 R0
SYMATTR InstName R12
SYMATTR Value 50k
SYMBOL cap -1200 208 R90
WINDOW 0 0 32 VBottom 2
WINDOW 3 32 32 VTop 2
SYMATTR InstName C6
SYMATTR Value 10n
SYMBOL res -1072 368 R0
SYMATTR InstName R13
SYMATTR Value 1k
SYMBOL res -896 336 R90
WINDOW 0 0 56 VBottom 2
WINDOW 3 32 56 VTop 2
SYMATTR InstName R14
SYMATTR Value 6k
SYMBOL res -288 256 R180
WINDOW 0 36 76 Left 2
WINDOW 3 36 40 Left 2
SYMATTR InstName R15
SYMATTR Value 1
SYMBOL cap -320 304 R0
SYMATTR InstName C7
SYMATTR Value 2µ IC=100
SYMBOL res -688 496 R90
WINDOW 0 0 56 VBottom 2
WINDOW 3 32 56 VTop 2
SYMATTR InstName R16
SYMATTR Value 1k
SYMBOL res -560 384 R90
WINDOW 0 0 56 VBottom 2
WINDOW 3 32 56 VTop 2
SYMATTR InstName R17
SYMATTR Value 7k
SYMBOL voltage -1136 496 R0
WINDOW 123 0 0 Left 0
WINDOW 39 0 0 Left 0
SYMATTR InstName V6
SYMATTR Value 2.5
SYMBOL voltage -688 592 R0
WINDOW 123 0 0 Left 0
WINDOW 39 0 0 Left 0
SYMATTR InstName V7
SYMATTR Value 2.5
SYMBOL OpAmps\\opamp -624 448 R0
SYMATTR InstName U7
TEXT 736 312 Left 2 !.tran 0 10m 0 1u
TEXT 3160 -200 Left 2 !.inc opamp.sub
TEXT 48 960 Left 2 !.model MYSW SW(Ron=1m Roff=1Meg Vt=.5 Vh=-.4)
